[TITLE]
;;Project Title/Notes

[OPTIONS]
;;Option             Value
FLOW_UNITS           LPS
INFILTRATION         HORTON
FLOW_ROUTING         DYNWAVE
LINK_OFFSETS         DEPTH
MIN_SLOPE            0
ALLOW_PONDING        YES
SKIP_STEADY_STATE    NO

START_DATE             06/27/2022
START_TIME             00:00:00
REPORT_START_DATE             06/27/2022
REPORT_START_TIME             00:00:00
END_DATE             09/30/2023
END_TIME             23:55:00
SWEEP_START          01/01
SWEEP_END            12/31
DRY_DAYS             0
REPORT_STEP          00:05:00
WET_STEP             00:05:00
DRY_STEP             01:00:00
ROUTING_STEP         0:00:30 
;;RULE_STEP            00:00:00

INERTIAL_DAMPING     PARTIAL
NORMAL_FLOW_LIMITED  BOTH
FORCE_MAIN_EQUATION  H-W
VARIABLE_STEP        0.75
LENGTHENING_STEP     0
MIN_SURFAREA         1.167
MAX_TRIALS           8
HEAD_TOLERANCE       0.0015
SYS_FLOW_TOL         5
LAT_FLOW_TOL         5
MINIMUM_STEP         0.5
THREADS              1

[EVAPORATION]
;;Data Source    Parameters
;;-------------- ----------------
CONSTANT         0.0
DRY_ONLY         NO

[JUNCTIONS]
;;Name           Elevation  MaxDepth   InitDepth  SurDepth   Aponded   
;;-------------- ---------- ---------- ---------- ---------- ----------
Ya9              20.48      1.5        0          0          0         
Yb12             20.7       1.23       0          0          0         
Yb13             20.5       1.5        0          0          0         
J1               20.85      1.5        0          0          0         

[OUTFALLS]
;;Name           Elevation  Type       Stage Data       Gated    Route To        
;;-------------- ---------- ---------- ---------------- -------- ----------------
Out1             20.2       FREE                        NO                       
Reuse1           20.5       FREE                        NO                       

[STORAGE]
;;Name           Elev.    MaxDepth   InitDepth  Shape      Curve Name/Params            N/A      Fevap    Psi      Ksat     IMD     
;;-------------- -------- ---------- ----------- ---------- ---------------------------- -------- --------          -------- --------
T1               17.42    4.9        1          FUNCTIONAL 0         0         35     0        0       

[CONDUITS]
;;Name           From Node        To Node          Length     Roughness  InOffset   OutOffset  InitFlow   MaxFlow   
;;-------------- ---------------- ---------------- ---------- ---------- ---------- ---------- ---------- ----------
J21              Yb12             Yb13             7.7523522  0.014      0.3        0.2        0          0         
J22              Yb13             Ya9              2.29511038 0.014      0          0          0          0         
J23              Ya9              Out1             5.99739132 0.014      0          0          0          0         

[PUMPS]
;;Name           From Node        To Node          Pump Curve       Status   Sartup Shutoff 
;;-------------- ---------------- ---------------- ---------------- ------ -------- --------
P1               T1               J1               Drainout         OFF      0        0       
P2               T1               Reuse1           Reuse1           OFF      0        0       

[ORIFICES]
;;Name           From Node        To Node          Type         Offset     Qcoeff     Gated    CloseTime 
;;-------------- ---------------- ---------------- ------------ ---------- ---------- -------- ----------
FM3              J1               Ya9              SIDE         0          0.65       NO       0         
FM1              Yb12             T1               SIDE         0.2        0.65       NO       0         
FM2              T1               Yb13             SIDE         3.1        0.65       YES      0         

[XSECTIONS]
;;Link           Shape        Geom1            Geom2      Geom3      Geom4      Barrels    Culvert   
;;-------------- ------------ ---------------- ---------- ---------- ---------- ---------- ----------
J21              CIRCULAR     0.3              0          0          0          1                    
J22              CIRCULAR     0.3              0          0          0          1                    
J23              CIRCULAR     0.3              0          0          0          1                    
FM3              CIRCULAR     0.3              0          0          0
FM1              CIRCULAR     0.3              0          0          0
FM2              CIRCULAR     0.3              0          0          0

[CONTROLS]




[INFLOWS]
;;Node           Constituent      Time Series      Type     Mfactor  Sfactor  Baseline Pattern
;;-------------- ---------------- ---------------- -------- -------- -------- -------- --------
Yb12             FLOW             Qin              FLOW     1.0      1.0              

[CURVES]
;;Name           Type       X-Value    Y-Value   
;;-------------- ---------- ---------- ----------
Drainout         Pump2      0          1.5    
Drainout                    1          1.5    
Drainout                    2          1.5    
Drainout                    3          1.5    
Drainout                    4          1.5    
;
Reuse1           Pump2      0          0.5     
Reuse1                      1          0.5     
Reuse1                      2          0.5     
Reuse1                      3          0.5     
Reuse1                      4          0.5     

[TIMESERIES]
;;Name	Date	Time	Value
;;-------------- ------------------ ------------------
Qin	06/27/2022	00:00:00	0
Qin	06/27/2022	00:05:00	0
Qin	06/27/2022	00:10:00	0
Qin	06/27/2022	00:15:00	0
Qin	06/27/2022	00:20:00	0
Qin	06/27/2022	00:25:00	0
Qin	06/27/2022	00:30:00	0
Qin	06/27/2022	00:35:00	0
Qin	06/27/2022	00:40:00	0
Qin	06/27/2022	00:45:00	0
Qin	06/27/2022	00:50:00	0
Qin	06/27/2022	00:55:00	0
Qin	06/27/2022	01:00:00	0
Qin	06/27/2022	01:05:00	0
Qin	06/27/2022	01:10:00	0
Qin	06/27/2022	01:15:00	0
Qin	06/27/2022	01:20:00	0
Qin	06/27/2022	01:25:00	0
Qin	06/27/2022	01:30:00	0
Qin	06/27/2022	01:35:00	0
Qin	06/27/2022	01:40:00	0
Qin	06/27/2022	01:45:00	0
Qin	06/27/2022	01:50:00	0
Qin	06/27/2022	01:55:00	0
Qin	06/27/2022	02:00:00	0
Qin	06/27/2022	02:05:00	0
Qin	06/27/2022	02:10:00	0
Qin	06/27/2022	02:15:00	0
Qin	06/27/2022	02:20:00	0
Qin	06/27/2022	02:25:00	0
Qin	06/27/2022	02:30:00	0
Qin	06/27/2022	02:35:00	0
Qin	06/27/2022	02:40:00	0
Qin	06/27/2022	02:45:00	0
Qin	06/27/2022	02:50:00	0
Qin	06/27/2022	02:55:00	0
Qin	06/27/2022	03:00:00	0
Qin	06/27/2022	03:05:00	0
Qin	06/27/2022	03:10:00	0
Qin	06/27/2022	03:15:00	0
Qin	06/27/2022	03:20:00	0
Qin	06/27/2022	03:25:00	0
Qin	06/27/2022	03:30:00	0
Qin	06/27/2022	03:35:00	0
Qin	06/27/2022	03:40:00	0
Qin	06/27/2022	03:45:00	0
Qin	06/27/2022	03:50:00	0
Qin	06/27/2022	03:55:00	0
Qin	06/27/2022	04:00:00	0
Qin	06/27/2022	04:05:00	0
Qin	06/27/2022	04:10:00	0
Qin	06/27/2022	04:15:00	0
Qin	06/27/2022	04:20:00	0
Qin	06/27/2022	04:25:00	0
Qin	06/27/2022	04:30:00	0
Qin	06/27/2022	04:35:00	0
Qin	06/27/2022	04:40:00	0
Qin	06/27/2022	04:45:00	0
Qin	06/27/2022	04:50:00	0
Qin	06/27/2022	04:55:00	0
Qin	06/27/2022	05:00:00	0
Qin	06/27/2022	05:05:00	0
Qin	06/27/2022	05:10:00	0
Qin	06/27/2022	05:15:00	0
Qin	06/27/2022	05:20:00	0
Qin	06/27/2022	05:25:00	0
Qin	06/27/2022	05:30:00	0
Qin	06/27/2022	05:35:00	0
Qin	06/27/2022	05:40:00	0
Qin	06/27/2022	05:45:00	0
Qin	06/27/2022	05:50:00	0
Qin	06/27/2022	05:55:00	0
Qin	06/27/2022	06:00:00	0
Qin	06/27/2022	06:05:00	0
Qin	06/27/2022	06:10:00	0
Qin	06/27/2022	06:15:00	0
Qin	06/27/2022	06:20:00	0
Qin	06/27/2022	06:25:00	0
Qin	06/27/2022	06:30:00	0
Qin	06/27/2022	06:35:00	0
Qin	06/27/2022	06:40:00	0
Qin	06/27/2022	06:45:00	0
Qin	06/27/2022	06:50:00	0
Qin	06/27/2022	06:55:00	0
Qin	06/27/2022	07:00:00	0
Qin	06/27/2022	07:05:00	0
Qin	06/27/2022	07:10:00	0
Qin	06/27/2022	07:15:00	0
Qin	06/27/2022	07:20:00	0
Qin	06/27/2022	07:25:00	0
Qin	06/27/2022	07:30:00	0
Qin	06/27/2022	07:35:00	0
Qin	06/27/2022	07:40:00	0
Qin	06/27/2022	07:45:00	0
Qin	06/27/2022	07:50:00	0
Qin	06/27/2022	07:55:00	0
Qin	06/27/2022	08:00:00	0
Qin	06/27/2022	08:05:00	0
Qin	06/27/2022	08:10:00	0
Qin	06/27/2022	08:15:00	0
Qin	06/27/2022	08:20:00	0
Qin	06/27/2022	08:25:00	0
Qin	06/27/2022	08:30:00	0
Qin	06/27/2022	08:35:00	0
Qin	06/27/2022	08:40:00	0
Qin	06/27/2022	08:45:00	0
Qin	06/27/2022	08:50:00	0
Qin	06/27/2022	08:55:00	0
Qin	06/27/2022	09:00:00	0
Qin	06/27/2022	09:05:00	0
Qin	06/27/2022	09:10:00	0
Qin	06/27/2022	09:15:00	0
Qin	06/27/2022	09:20:00	0
Qin	06/27/2022	09:25:00	0
Qin	06/27/2022	09:30:00	0
Qin	06/27/2022	09:35:00	0
Qin	06/27/2022	09:40:00	0
Qin	06/27/2022	09:45:00	0
Qin	06/27/2022	09:50:00	0
Qin	06/27/2022	09:55:00	0
Qin	06/27/2022	10:00:00	0
Qin	06/27/2022	10:05:00	0
Qin	06/27/2022	10:10:00	0
Qin	06/27/2022	10:15:00	0
Qin	06/27/2022	10:20:00	0
Qin	06/27/2022	10:25:00	0
Qin	06/27/2022	10:30:00	0
Qin	06/27/2022	10:35:00	0
Qin	06/27/2022	10:40:00	0
Qin	06/27/2022	10:45:00	0
Qin	06/27/2022	10:50:00	0
Qin	06/27/2022	10:55:00	0
Qin	06/27/2022	11:00:00	0
Qin	06/27/2022	11:05:00	0
Qin	06/27/2022	11:10:00	0
Qin	06/27/2022	11:15:00	0
Qin	06/27/2022	11:20:00	0
Qin	06/27/2022	11:25:00	0
Qin	06/27/2022	11:30:00	0
Qin	06/27/2022	11:35:00	0
Qin	06/27/2022	11:40:00	0
Qin	06/27/2022	11:45:00	0
Qin	06/27/2022	11:50:00	0
Qin	06/27/2022	11:55:00	0
Qin	06/27/2022	12:00:00	0
Qin	06/27/2022	12:05:00	0
Qin	06/27/2022	12:10:00	0
Qin	06/27/2022	12:15:00	0
Qin	06/27/2022	12:20:00	0
Qin	06/27/2022	12:25:00	0
Qin	06/27/2022	12:30:00	0
Qin	06/27/2022	12:35:00	0
Qin	06/27/2022	12:40:00	0
Qin	06/27/2022	12:45:00	0
Qin	06/27/2022	12:50:00	0
Qin	06/27/2022	12:55:00	0
Qin	06/27/2022	13:00:00	0
Qin	06/27/2022	13:05:00	0
Qin	06/27/2022	13:10:00	0
Qin	06/27/2022	13:15:00	0
Qin	06/27/2022	13:20:00	0
Qin	06/27/2022	13:25:00	0
Qin	06/27/2022	13:30:00	0
Qin	06/27/2022	13:35:00	0
Qin	06/27/2022	13:40:00	0
Qin	06/27/2022	13:45:00	0
Qin	06/27/2022	13:50:00	0
Qin	06/27/2022	13:55:00	0
Qin	06/27/2022	14:00:00	0
Qin	06/27/2022	14:05:00	0
Qin	06/27/2022	14:10:00	0
Qin	06/27/2022	14:15:00	0
Qin	06/27/2022	14:20:00	0
Qin	06/27/2022	14:25:00	0
Qin	06/27/2022	14:30:00	0
Qin	06/27/2022	14:35:00	0
Qin	06/27/2022	14:40:00	0
Qin	06/27/2022	14:45:00	0
Qin	06/27/2022	14:50:00	0
Qin	06/27/2022	14:55:00	0
Qin	06/27/2022	15:00:00	0
Qin	06/27/2022	15:05:00	0
Qin	06/27/2022	15:10:00	0
Qin	06/27/2022	15:15:00	0
Qin	06/27/2022	15:20:00	0
Qin	06/27/2022	15:25:00	0
Qin	06/27/2022	15:30:00	0
Qin	06/27/2022	15:35:00	0
Qin	06/27/2022	15:40:00	0
Qin	06/27/2022	15:45:00	0
Qin	06/27/2022	15:50:00	0
Qin	06/27/2022	15:55:00	0
Qin	06/27/2022	16:00:00	0
Qin	06/27/2022	16:05:00	0
Qin	06/27/2022	16:10:00	0
Qin	06/27/2022	16:15:00	0
Qin	06/27/2022	16:20:00	0
Qin	06/27/2022	16:25:00	0
Qin	06/27/2022	16:30:00	0
Qin	06/27/2022	16:35:00	0
Qin	06/27/2022	16:40:00	0
Qin	06/27/2022	16:45:00	0
Qin	06/27/2022	16:50:00	0
Qin	06/27/2022	16:55:00	0
Qin	06/27/2022	17:00:00	0
Qin	06/27/2022	17:05:00	0
Qin	06/27/2022	17:10:00	0
Qin	06/27/2022	17:15:00	0
Qin	06/27/2022	17:20:00	0
Qin	06/27/2022	17:25:00	0
Qin	06/27/2022	17:30:00	0
Qin	06/27/2022	17:35:00	0
Qin	06/27/2022	17:40:00	0
Qin	06/27/2022	17:45:00	0
Qin	06/27/2022	17:50:00	0
Qin	06/27/2022	17:55:00	0
Qin	06/27/2022	18:00:00	0
Qin	06/27/2022	18:05:00	0
Qin	06/27/2022	18:10:00	0
Qin	06/27/2022	18:15:00	0
Qin	06/27/2022	18:20:00	0
Qin	06/27/2022	18:25:00	0
Qin	06/27/2022	18:30:00	0
Qin	06/27/2022	18:35:00	0
Qin	06/27/2022	18:40:00	0
Qin	06/27/2022	18:45:00	0
Qin	06/27/2022	18:50:00	0
Qin	06/27/2022	18:55:00	0
Qin	06/27/2022	19:00:00	0
Qin	06/27/2022	19:05:00	0
Qin	06/27/2022	19:10:00	0
Qin	06/27/2022	19:15:00	0
Qin	06/27/2022	19:20:00	0
Qin	06/27/2022	19:25:00	0
Qin	06/27/2022	19:30:00	0
Qin	06/27/2022	19:35:00	0
Qin	06/27/2022	19:40:00	0
Qin	06/27/2022	19:45:00	0
Qin	06/27/2022	19:50:00	0
Qin	06/27/2022	19:55:00	0
Qin	06/27/2022	20:00:00	0
Qin	06/27/2022	20:05:00	0
Qin	06/27/2022	20:10:00	0
Qin	06/27/2022	20:15:00	0
Qin	06/27/2022	20:20:00	0
Qin	06/27/2022	20:25:00	0
Qin	06/27/2022	20:30:00	0
Qin	06/27/2022	20:35:00	0
Qin	06/27/2022	20:40:00	0
Qin	06/27/2022	20:45:00	0
Qin	06/27/2022	20:50:00	0
Qin	06/27/2022	20:55:00	0
Qin	06/27/2022	21:00:00	0
Qin	06/27/2022	21:05:00	0
Qin	06/27/2022	21:10:00	0
Qin	06/27/2022	21:15:00	0
Qin	06/27/2022	21:20:00	0
Qin	06/27/2022	21:25:00	0.25353
Qin	06/27/2022	21:30:00	0
Qin	06/27/2022	21:35:00	0
Qin	06/27/2022	21:40:00	0
Qin	06/27/2022	21:45:00	0
Qin	06/27/2022	21:50:00	0
Qin	06/27/2022	21:55:00	0
Qin	06/27/2022	22:00:00	0
Qin	06/27/2022	22:05:00	0.308059
Qin	06/27/2022	22:10:00	1.68254
Qin	06/27/2022	22:15:00	2.98784
Qin	06/27/2022	22:20:00	3.86266
Qin	06/27/2022	22:25:00	2.57438
Qin	06/27/2022	22:30:00	5.24815
Qin	06/27/2022	22:35:00	9.38892
Qin	06/27/2022	22:40:00	3.32513
Qin	06/27/2022	22:45:00	2.45185
Qin	06/27/2022	22:50:00	1.60874
Qin	06/27/2022	22:55:00	1.67896
Qin	06/27/2022	23:00:00	2.70586
Qin	06/27/2022	23:05:00	0.835395
Qin	06/27/2022	23:10:00	2.76046
Qin	06/27/2022	23:15:00	0.849928
Qin	06/27/2022	23:20:00	1.7789
Qin	06/27/2022	23:25:00	0.796834
Qin	06/27/2022	23:30:00	1.72491
Qin	06/27/2022	23:35:00	1.70828
Qin	06/27/2022	23:40:00	1.6795
Qin	06/27/2022	23:45:00	0.660891
Qin	06/27/2022	23:50:00	1.60145
Qin	06/27/2022	23:55:00	1.58883
Qin	06/28/2022	00:00:00	1.56732
Qin	06/28/2022	00:05:00	1.55081
Qin	06/28/2022	00:10:00	3.61902
Qin	06/28/2022	00:15:00	2.63725
Qin	06/28/2022	00:20:00	1.60628
Qin	06/28/2022	00:25:00	0.574302
Qin	06/28/2022	00:30:00	2.65664
Qin	06/28/2022	00:35:00	1.64886
Qin	06/28/2022	00:40:00	1.64563
Qin	06/28/2022	00:45:00	2.73119
Qin	06/28/2022	00:50:00	5.01659
Qin	06/28/2022	00:55:00	4.01759
Qin	06/28/2022	01:00:00	8.89902
Qin	06/28/2022	01:05:00	5.57422
Qin	06/28/2022	01:10:00	2.15704
Qin	06/28/2022	01:15:00	12.2805
Qin	06/28/2022	01:20:00	10.1959
Qin	06/28/2022	01:25:00	10.5754
Qin	06/28/2022	01:30:00	13.9388
Qin	06/28/2022	01:35:00	5.97434
Qin	06/28/2022	01:40:00	2.23843
Qin	06/28/2022	01:45:00	3.56172
Qin	06/28/2022	01:50:00	3.64005
Qin	06/28/2022	01:55:00	3.6419
Qin	06/28/2022	02:00:00	2.33559
Qin	06/28/2022	02:05:00	2.22234
Qin	06/28/2022	02:10:00	3.35665
Qin	06/28/2022	02:15:00	1.97818
Qin	06/28/2022	02:20:00	7.10067
Qin	06/28/2022	02:25:00	3.07384
Qin	06/28/2022	02:30:00	2.92804
Qin	06/28/2022	02:35:00	2.84465
Qin	06/28/2022	02:40:00	2.76673
Qin	06/28/2022	02:45:00	4.02377
Qin	06/28/2022	02:50:00	9.74455
Qin	06/28/2022	02:55:00	9.98778
Qin	06/28/2022	03:00:00	16.8089
Qin	06/28/2022	03:05:00	9.165
Qin	06/28/2022	03:10:00	3.41896
Qin	06/28/2022	03:15:00	4.92673
Qin	06/28/2022	03:20:00	14.6254
Qin	06/28/2022	03:25:00	20.6801
Qin	06/28/2022	03:30:00	10.6513
Qin	06/28/2022	03:35:00	9.19631
Qin	06/28/2022	03:40:00	7.83435
Qin	06/28/2022	03:45:00	11.296
Qin	06/28/2022	03:50:00	16.9642
Qin	06/28/2022	03:55:00	13.7253
Qin	06/28/2022	04:00:00	8.75864
Qin	06/28/2022	04:05:00	5.6316
Qin	06/28/2022	04:10:00	7.1825
Qin	06/28/2022	04:15:00	4.08803
Qin	06/28/2022	04:20:00	3.91726
Qin	06/28/2022	04:25:00	3.72428
Qin	06/28/2022	04:30:00	4.99967
Qin	06/28/2022	04:35:00	3.25991
Qin	06/28/2022	04:40:00	4.48895
Qin	06/28/2022	04:45:00	2.74345
Qin	06/28/2022	04:50:00	2.46886
Qin	06/28/2022	04:55:00	2.22156
Qin	06/28/2022	05:00:00	1.98444
Qin	06/28/2022	05:05:00	1.76057
Qin	06/28/2022	05:10:00	1.5523
Qin	06/28/2022	05:15:00	1.36099
Qin	06/28/2022	05:20:00	1.1872
Qin	06/28/2022	05:25:00	1.03081
Qin	06/28/2022	05:30:00	0.89127
Qin	06/28/2022	05:35:00	0.767665
Qin	06/28/2022	05:40:00	0.658884
Qin	06/28/2022	05:45:00	0.5637
Qin	06/28/2022	05:50:00	0.480839
Qin	06/28/2022	05:55:00	0.409037
Qin	06/28/2022	06:00:00	0.34708
Qin	06/28/2022	06:05:00	0.293818
Qin	06/28/2022	06:10:00	0.248189
Qin	06/28/2022	06:15:00	0.20922
Qin	06/28/2022	06:20:00	0.176036
Qin	06/28/2022	06:25:00	0.147852
Qin	06/28/2022	06:30:00	0.123974
Qin	06/28/2022	06:35:00	0.103788
Qin	06/28/2022	06:40:00	0
Qin	06/28/2022	06:45:00	0
Qin	06/28/2022	06:50:00	0
Qin	06/28/2022	06:55:00	0
Qin	06/28/2022	07:00:00	0
Qin	06/28/2022	07:05:00	0
Qin	06/28/2022	07:10:00	0
Qin	06/28/2022	07:15:00	0
Qin	06/28/2022	07:20:00	0
Qin	06/28/2022	07:25:00	0
Qin	06/28/2022	07:30:00	0
Qin	06/28/2022	07:35:00	0
Qin	06/28/2022	07:40:00	0
Qin	06/28/2022	07:45:00	0
Qin	06/28/2022	07:50:00	0
Qin	06/28/2022	07:55:00	0
Qin	06/28/2022	08:00:00	0
Qin	06/28/2022	08:05:00	0
Qin	06/28/2022	08:10:00	0
Qin	06/28/2022	08:15:00	0
Qin	06/28/2022	08:20:00	0
Qin	06/28/2022	08:25:00	0
Qin	06/28/2022	08:30:00	0
Qin	06/28/2022	08:35:00	0
Qin	06/28/2022	08:40:00	0
Qin	06/28/2022	08:45:00	0
Qin	06/28/2022	08:50:00	0
Qin	06/28/2022	08:55:00	0
Qin	06/28/2022	09:00:00	0
Qin	06/28/2022	09:05:00	0
Qin	06/28/2022	09:10:00	0
Qin	06/28/2022	09:15:00	0
Qin	06/28/2022	09:20:00	0
Qin	06/28/2022	09:25:00	0
Qin	06/28/2022	09:30:00	0
Qin	06/28/2022	09:35:00	0
Qin	06/28/2022	09:40:00	0
Qin	06/28/2022	09:45:00	0
Qin	06/28/2022	09:50:00	0
Qin	06/28/2022	09:55:00	0
Qin	06/28/2022	10:00:00	0
Qin	06/28/2022	10:05:00	0
Qin	06/28/2022	10:10:00	0
Qin	06/28/2022	10:15:00	0
Qin	06/28/2022	10:20:00	0
Qin	06/28/2022	10:25:00	0
Qin	06/28/2022	10:30:00	0
Qin	06/28/2022	10:35:00	0
Qin	06/28/2022	10:40:00	0
Qin	06/28/2022	10:45:00	0
Qin	06/28/2022	10:50:00	0
Qin	06/28/2022	10:55:00	0
Qin	06/28/2022	11:00:00	0
Qin	06/28/2022	11:05:00	0
Qin	06/28/2022	11:10:00	0
Qin	06/28/2022	11:15:00	0
Qin	06/28/2022	11:20:00	0
Qin	06/28/2022	11:25:00	0
Qin	06/28/2022	11:30:00	0
Qin	06/28/2022	11:35:00	0
Qin	06/28/2022	11:40:00	0
Qin	06/28/2022	11:45:00	0
Qin	06/28/2022	11:50:00	0
Qin	06/28/2022	11:55:00	0
Qin	06/28/2022	12:00:00	0
Qin	06/28/2022	12:05:00	0
Qin	06/28/2022	12:10:00	0
Qin	06/28/2022	12:15:00	0
Qin	06/28/2022	12:20:00	0
Qin	06/28/2022	12:25:00	0
Qin	06/28/2022	12:30:00	0
Qin	06/28/2022	12:35:00	0
Qin	06/28/2022	12:40:00	0
Qin	06/28/2022	12:45:00	0
Qin	06/28/2022	12:50:00	0
Qin	06/28/2022	12:55:00	0
Qin	06/28/2022	13:00:00	0
Qin	06/28/2022	13:05:00	0
Qin	06/28/2022	13:10:00	0
Qin	06/28/2022	13:15:00	0
Qin	06/28/2022	13:20:00	0
Qin	06/28/2022	13:25:00	0
Qin	06/28/2022	13:30:00	0
Qin	06/28/2022	13:35:00	0
Qin	06/28/2022	13:40:00	0
Qin	06/28/2022	13:45:00	0
Qin	06/28/2022	13:50:00	0
Qin	06/28/2022	13:55:00	0
Qin	06/28/2022	14:00:00	0
Qin	06/28/2022	14:05:00	0
Qin	06/28/2022	14:10:00	0
Qin	06/28/2022	14:15:00	0
Qin	06/28/2022	14:20:00	0
Qin	06/28/2022	14:25:00	0
Qin	06/28/2022	14:30:00	0
Qin	06/28/2022	14:35:00	0
Qin	06/28/2022	14:40:00	0
Qin	06/28/2022	14:45:00	0
Qin	06/28/2022	14:50:00	0
Qin	06/28/2022	14:55:00	0
Qin	06/28/2022	15:00:00	0
Qin	06/28/2022	15:05:00	0
Qin	06/28/2022	15:10:00	0
Qin	06/28/2022	15:15:00	0
Qin	06/28/2022	15:20:00	0
Qin	06/28/2022	15:25:00	0
Qin	06/28/2022	15:30:00	0
Qin	06/28/2022	15:35:00	0
Qin	06/28/2022	15:40:00	0
Qin	06/28/2022	15:45:00	0
Qin	06/28/2022	15:50:00	0
Qin	06/28/2022	15:55:00	0
Qin	06/28/2022	16:00:00	0
Qin	06/28/2022	16:05:00	0
Qin	06/28/2022	16:10:00	0
Qin	06/28/2022	16:15:00	0
Qin	06/28/2022	16:20:00	0
Qin	06/28/2022	16:25:00	0
Qin	06/28/2022	16:30:00	0
Qin	06/28/2022	16:35:00	0
Qin	06/28/2022	16:40:00	0
Qin	06/28/2022	16:45:00	0
Qin	06/28/2022	16:50:00	0
Qin	06/28/2022	16:55:00	0
Qin	06/28/2022	17:00:00	0
Qin	06/28/2022	17:05:00	0
Qin	06/28/2022	17:10:00	0
Qin	06/28/2022	17:15:00	0
Qin	06/28/2022	17:20:00	0
Qin	06/28/2022	17:25:00	0
Qin	06/28/2022	17:30:00	0
Qin	06/28/2022	17:35:00	0
Qin	06/28/2022	17:40:00	0
Qin	06/28/2022	17:45:00	0
Qin	06/28/2022	17:50:00	0
Qin	06/28/2022	17:55:00	0
Qin	06/28/2022	18:00:00	0
Qin	06/28/2022	18:05:00	0
Qin	06/28/2022	18:10:00	0
Qin	06/28/2022	18:15:00	0
Qin	06/28/2022	18:20:00	0
Qin	06/28/2022	18:25:00	0
Qin	06/28/2022	18:30:00	0
Qin	06/28/2022	18:35:00	0
Qin	06/28/2022	18:40:00	0
Qin	06/28/2022	18:45:00	0
Qin	06/28/2022	18:50:00	0
Qin	06/28/2022	18:55:00	0
Qin	06/28/2022	19:00:00	0
Qin	06/28/2022	19:05:00	0
Qin	06/28/2022	19:10:00	0
Qin	06/28/2022	19:15:00	0
Qin	06/28/2022	19:20:00	0
Qin	06/28/2022	19:25:00	0
Qin	06/28/2022	19:30:00	0
Qin	06/28/2022	19:35:00	0
Qin	06/28/2022	19:40:00	0
Qin	06/28/2022	19:45:00	0
Qin	06/28/2022	19:50:00	0
Qin	06/28/2022	19:55:00	0
Qin	06/28/2022	20:00:00	0
Qin	06/28/2022	20:05:00	0
Qin	06/28/2022	20:10:00	0
Qin	06/28/2022	20:15:00	0
Qin	06/28/2022	20:20:00	0
Qin	06/28/2022	20:25:00	0
Qin	06/28/2022	20:30:00	0
Qin	06/28/2022	20:35:00	0
Qin	06/28/2022	20:40:00	0
Qin	06/28/2022	20:45:00	0
Qin	06/28/2022	20:50:00	0
Qin	06/28/2022	20:55:00	0
Qin	06/28/2022	21:00:00	0
Qin	06/28/2022	21:05:00	0
Qin	06/28/2022	21:10:00	0
Qin	06/28/2022	21:15:00	0
Qin	06/28/2022	21:20:00	0
Qin	06/28/2022	21:25:00	0
Qin	06/28/2022	21:30:00	0
Qin	06/28/2022	21:35:00	0
Qin	06/28/2022	21:40:00	0
Qin	06/28/2022	21:45:00	0
Qin	06/28/2022	21:50:00	0
Qin	06/28/2022	21:55:00	0
Qin	06/28/2022	22:00:00	0
Qin	06/28/2022	22:05:00	0
Qin	06/28/2022	22:10:00	0
Qin	06/28/2022	22:15:00	0
Qin	06/28/2022	22:20:00	0
Qin	06/28/2022	22:25:00	0
Qin	06/28/2022	22:30:00	0
Qin	06/28/2022	22:35:00	0
Qin	06/28/2022	22:40:00	0
Qin	06/28/2022	22:45:00	0
Qin	06/28/2022	22:50:00	0
Qin	06/28/2022	22:55:00	0
Qin	06/28/2022	23:00:00	0
Qin	06/28/2022	23:05:00	0
Qin	06/28/2022	23:10:00	0
Qin	06/28/2022	23:15:00	0
Qin	06/28/2022	23:20:00	0
Qin	06/28/2022	23:25:00	0
Qin	06/28/2022	23:30:00	0
Qin	06/28/2022	23:35:00	0
Qin	06/28/2022	23:40:00	0
Qin	06/28/2022	23:45:00	0
Qin	06/28/2022	23:50:00	0
Qin	06/28/2022	23:55:00	0
Qin	06/29/2022	00:00:00	0
Qin	06/29/2022	00:05:00	0
Qin	06/29/2022	00:10:00	0
Qin	06/29/2022	00:15:00	0
Qin	06/29/2022	00:20:00	0
Qin	06/29/2022	00:25:00	0
Qin	06/29/2022	00:30:00	0
Qin	06/29/2022	00:35:00	0
Qin	06/29/2022	00:40:00	0
Qin	06/29/2022	00:45:00	0
Qin	06/29/2022	00:50:00	0
Qin	06/29/2022	00:55:00	0
Qin	06/29/2022	01:00:00	0
Qin	06/29/2022	01:05:00	0
Qin	06/29/2022	01:10:00	0
Qin	06/29/2022	01:15:00	0
Qin	06/29/2022	01:20:00	0
Qin	06/29/2022	01:25:00	0
Qin	06/29/2022	01:30:00	0
Qin	06/29/2022	01:35:00	0
Qin	06/29/2022	01:40:00	0
Qin	06/29/2022	01:45:00	0
Qin	06/29/2022	01:50:00	0
Qin	06/29/2022	01:55:00	0
Qin	06/29/2022	02:00:00	0
Qin	06/29/2022	02:05:00	0
Qin	06/29/2022	02:10:00	0
Qin	06/29/2022	02:15:00	0
Qin	06/29/2022	02:20:00	0
Qin	06/29/2022	02:25:00	0
Qin	06/29/2022	02:30:00	0
Qin	06/29/2022	02:35:00	0
Qin	06/29/2022	02:40:00	0
Qin	06/29/2022	02:45:00	0
Qin	06/29/2022	02:50:00	0
Qin	06/29/2022	02:55:00	0
Qin	06/29/2022	03:00:00	0
Qin	06/29/2022	03:05:00	0
Qin	06/29/2022	03:10:00	0
Qin	06/29/2022	03:15:00	0
Qin	06/29/2022	03:20:00	0
Qin	06/29/2022	03:25:00	0
Qin	06/29/2022	03:30:00	0
Qin	06/29/2022	03:35:00	0
Qin	06/29/2022	03:40:00	0
Qin	06/29/2022	03:45:00	0
Qin	06/29/2022	03:50:00	0
Qin	06/29/2022	03:55:00	0
Qin	06/29/2022	04:00:00	0
Qin	06/29/2022	04:05:00	0
Qin	06/29/2022	04:10:00	0
Qin	06/29/2022	04:15:00	0
Qin	06/29/2022	04:20:00	0
Qin	06/29/2022	04:25:00	0
Qin	06/29/2022	04:30:00	0
Qin	06/29/2022	04:35:00	0
Qin	06/29/2022	04:40:00	0
Qin	06/29/2022	04:45:00	0
Qin	06/29/2022	04:50:00	0
Qin	06/29/2022	04:55:00	0
Qin	06/29/2022	05:00:00	0
Qin	06/29/2022	05:05:00	0
Qin	06/29/2022	05:10:00	0
Qin	06/29/2022	05:15:00	0
Qin	06/29/2022	05:20:00	0
Qin	06/29/2022	05:25:00	0
Qin	06/29/2022	05:30:00	0
Qin	06/29/2022	05:35:00	0
Qin	06/29/2022	05:40:00	0
Qin	06/29/2022	05:45:00	0
Qin	06/29/2022	05:50:00	0
Qin	06/29/2022	05:55:00	0
Qin	06/29/2022	06:00:00	0
Qin	06/29/2022	06:05:00	0
Qin	06/29/2022	06:10:00	0
Qin	06/29/2022	06:15:00	0
Qin	06/29/2022	06:20:00	0
Qin	06/29/2022	06:25:00	0
Qin	06/29/2022	06:30:00	0
Qin	06/29/2022	06:35:00	0
Qin	06/29/2022	06:40:00	0
Qin	06/29/2022	06:45:00	0
Qin	06/29/2022	06:50:00	0
Qin	06/29/2022	06:55:00	0
Qin	06/29/2022	07:00:00	0
Qin	06/29/2022	07:05:00	0
Qin	06/29/2022	07:10:00	0
Qin	06/29/2022	07:15:00	0
Qin	06/29/2022	07:20:00	0
Qin	06/29/2022	07:25:00	0
Qin	06/29/2022	07:30:00	0
Qin	06/29/2022	07:35:00	0
Qin	06/29/2022	07:40:00	0
Qin	06/29/2022	07:45:00	0
Qin	06/29/2022	07:50:00	0
Qin	06/29/2022	07:55:00	0
Qin	06/29/2022	08:00:00	0
Qin	06/29/2022	08:05:00	0
Qin	06/29/2022	08:10:00	0
Qin	06/29/2022	08:15:00	0
Qin	06/29/2022	08:20:00	0
Qin	06/29/2022	08:25:00	0
Qin	06/29/2022	08:30:00	0
Qin	06/29/2022	08:35:00	0
Qin	06/29/2022	08:40:00	0.506615
Qin	06/29/2022	08:45:00	0
Qin	06/29/2022	08:50:00	0
Qin	06/29/2022	08:55:00	0
Qin	06/29/2022	09:00:00	0
Qin	06/29/2022	09:05:00	0
Qin	06/29/2022	09:10:00	0
Qin	06/29/2022	09:15:00	0
Qin	06/29/2022	09:20:00	0
Qin	06/29/2022	09:25:00	0
Qin	06/29/2022	09:30:00	0
Qin	06/29/2022	09:35:00	0
Qin	06/29/2022	09:40:00	0
Qin	06/29/2022	09:45:00	0
Qin	06/29/2022	09:50:00	0
Qin	06/29/2022	09:55:00	0
Qin	06/29/2022	10:00:00	0
Qin	06/29/2022	10:05:00	0
Qin	06/29/2022	10:10:00	0
Qin	06/29/2022	10:15:00	0
Qin	06/29/2022	10:20:00	0
Qin	06/29/2022	10:25:00	0
Qin	06/29/2022	10:30:00	0
Qin	06/29/2022	10:35:00	0
Qin	06/29/2022	10:40:00	0
Qin	06/29/2022	10:45:00	0.124107
Qin	06/29/2022	10:50:00	0
Qin	06/29/2022	10:55:00	0.213942
Qin	06/29/2022	11:00:00	0
Qin	06/29/2022	11:05:00	0.275153
Qin	06/29/2022	11:10:00	0
Qin	06/29/2022	11:15:00	0.14956
Qin	06/29/2022	11:20:00	0
Qin	06/29/2022	11:25:00	0
Qin	06/29/2022	11:30:00	0
Qin	06/29/2022	11:35:00	0
Qin	06/29/2022	11:40:00	0
Qin	06/29/2022	11:45:00	0
Qin	06/29/2022	11:50:00	0
Qin	06/29/2022	11:55:00	0
Qin	06/29/2022	12:00:00	0
Qin	06/29/2022	12:05:00	0
Qin	06/29/2022	12:10:00	0
Qin	06/29/2022	12:15:00	0
Qin	06/29/2022	12:20:00	0
Qin	06/29/2022	12:25:00	0
Qin	06/29/2022	12:30:00	0
Qin	06/29/2022	12:35:00	0
Qin	06/29/2022	12:40:00	0
Qin	06/29/2022	12:45:00	0
Qin	06/29/2022	12:50:00	0
Qin	06/29/2022	12:55:00	0
Qin	06/29/2022	13:00:00	0
Qin	06/29/2022	13:05:00	0
Qin	06/29/2022	13:10:00	0
Qin	06/29/2022	13:15:00	0
Qin	06/29/2022	13:20:00	0
Qin	06/29/2022	13:25:00	0
Qin	06/29/2022	13:30:00	0
Qin	06/29/2022	13:35:00	0
Qin	06/29/2022	13:40:00	0
Qin	06/29/2022	13:45:00	0
Qin	06/29/2022	13:50:00	0
Qin	06/29/2022	13:55:00	1.14278
Qin	06/29/2022	14:00:00	0
Qin	06/29/2022	14:05:00	0
Qin	06/29/2022	14:10:00	0
Qin	06/29/2022	14:15:00	0
Qin	06/29/2022	14:20:00	0
Qin	06/29/2022	14:25:00	0
Qin	06/29/2022	14:30:00	0
Qin	06/29/2022	14:35:00	0
Qin	06/29/2022	14:40:00	0
Qin	06/29/2022	14:45:00	0
Qin	06/29/2022	14:50:00	0
Qin	06/29/2022	14:55:00	0
Qin	06/29/2022	15:00:00	0
Qin	06/29/2022	15:05:00	0
Qin	06/29/2022	15:10:00	0
Qin	06/29/2022	15:15:00	0
Qin	06/29/2022	15:20:00	0
Qin	06/29/2022	15:25:00	0
Qin	06/29/2022	15:30:00	0
Qin	06/29/2022	15:35:00	0
Qin	06/29/2022	15:40:00	0
Qin	06/29/2022	15:45:00	0
Qin	06/29/2022	15:50:00	0
Qin	06/29/2022	15:55:00	0
Qin	06/29/2022	16:00:00	0
Qin	06/29/2022	16:05:00	0
Qin	06/29/2022	16:10:00	0
Qin	06/29/2022	16:15:00	0
Qin	06/29/2022	16:20:00	0
Qin	06/29/2022	16:25:00	0
Qin	06/29/2022	16:30:00	0.500179
Qin	06/29/2022	16:35:00	0
Qin	06/29/2022	16:40:00	0
Qin	06/29/2022	16:45:00	0
Qin	06/29/2022	16:50:00	0
Qin	06/29/2022	16:55:00	0.886704
Qin	06/29/2022	17:00:00	0
Qin	06/29/2022	17:05:00	0
Qin	06/29/2022	17:10:00	0
Qin	06/29/2022	17:15:00	0
Qin	06/29/2022	17:20:00	0
Qin	06/29/2022	17:25:00	0
Qin	06/29/2022	17:30:00	0
Qin	06/29/2022	17:35:00	0
Qin	06/29/2022	17:40:00	0
Qin	06/29/2022	17:45:00	0
Qin	06/29/2022	17:50:00	0
Qin	06/29/2022	17:55:00	0
Qin	06/29/2022	18:00:00	0
Qin	06/29/2022	18:05:00	0
Qin	06/29/2022	18:10:00	0
Qin	06/29/2022	18:15:00	0
Qin	06/29/2022	18:20:00	0
Qin	06/29/2022	18:25:00	0
Qin	06/29/2022	18:30:00	0
Qin	06/29/2022	18:35:00	0
Qin	06/29/2022	18:40:00	0
Qin	06/29/2022	18:45:00	0
Qin	06/29/2022	18:50:00	0
Qin	06/29/2022	18:55:00	0
Qin	06/29/2022	19:00:00	0
Qin	06/29/2022	19:05:00	0
Qin	06/29/2022	19:10:00	0
Qin	06/29/2022	19:15:00	0
Qin	06/29/2022	19:20:00	0
Qin	06/29/2022	19:25:00	0
Qin	06/29/2022	19:30:00	0
Qin	06/29/2022	19:35:00	0
Qin	06/29/2022	19:40:00	0
Qin	06/29/2022	19:45:00	0
Qin	06/29/2022	19:50:00	0
Qin	06/29/2022	19:55:00	0
Qin	06/29/2022	20:00:00	0
Qin	06/29/2022	20:05:00	0
Qin	06/29/2022	20:10:00	0
Qin	06/29/2022	20:15:00	0
Qin	06/29/2022	20:20:00	0
Qin	06/29/2022	20:25:00	0
Qin	06/29/2022	20:30:00	0
Qin	06/29/2022	20:35:00	0
Qin	06/29/2022	20:40:00	0
Qin	06/29/2022	20:45:00	0
Qin	06/29/2022	20:50:00	0
Qin	06/29/2022	20:55:00	0
Qin	06/29/2022	21:00:00	0
Qin	06/29/2022	21:05:00	0
Qin	06/29/2022	21:10:00	0
Qin	06/29/2022	21:15:00	0
Qin	06/29/2022	21:20:00	0
Qin	06/29/2022	21:25:00	0
Qin	06/29/2022	21:30:00	0
Qin	06/29/2022	21:35:00	0
Qin	06/29/2022	21:40:00	0
Qin	06/29/2022	21:45:00	0
Qin	06/29/2022	21:50:00	0
Qin	06/29/2022	21:55:00	0
Qin	06/29/2022	22:00:00	0
Qin	06/29/2022	22:05:00	0
Qin	06/29/2022	22:10:00	0
Qin	06/29/2022	22:15:00	0
Qin	06/29/2022	22:20:00	0
Qin	06/29/2022	22:25:00	0
Qin	06/29/2022	22:30:00	0
Qin	06/29/2022	22:35:00	0
Qin	06/29/2022	22:40:00	0
Qin	06/29/2022	22:45:00	0
Qin	06/29/2022	22:50:00	0
Qin	06/29/2022	22:55:00	0
Qin	06/29/2022	23:00:00	0
Qin	06/29/2022	23:05:00	0
Qin	06/29/2022	23:10:00	0
Qin	06/29/2022	23:15:00	0
Qin	06/29/2022	23:20:00	0
Qin	06/29/2022	23:25:00	0
Qin	06/29/2022	23:30:00	0
Qin	06/29/2022	23:35:00	0
Qin	06/29/2022	23:40:00	0
Qin	06/29/2022	23:45:00	0
Qin	06/29/2022	23:50:00	0
Qin	06/29/2022	23:55:00	0
Qin	06/30/2022	00:00:00	0
Qin	06/30/2022	00:05:00	0
Qin	06/30/2022	00:10:00	0
Qin	06/30/2022	00:15:00	0
Qin	06/30/2022	00:20:00	0
Qin	06/30/2022	00:25:00	0
Qin	06/30/2022	00:30:00	0
Qin	06/30/2022	00:35:00	0
Qin	06/30/2022	00:40:00	0
Qin	06/30/2022	00:45:00	0
Qin	06/30/2022	00:50:00	0
Qin	06/30/2022	00:55:00	0