[TITLE]
;;Project Title/Notes

[OPTIONS]
;;Option             Value
FLOW_UNITS           LPS
INFILTRATION         HORTON
FLOW_ROUTING         DYNWAVE
LINK_OFFSETS         DEPTH
MIN_SLOPE            0
ALLOW_PONDING        YES
SKIP_STEADY_STATE    NO

START_DATE             06/27/2022
START_TIME             00:00:00
REPORT_START_DATE             06/27/2022
REPORT_START_TIME             00:00:00
END_DATE             09/30/2023
END_TIME             23:55:00
SWEEP_START          01/01
SWEEP_END            12/31
DRY_DAYS             0
REPORT_STEP          00:05:00
WET_STEP             00:05:00
DRY_STEP             01:00:00
ROUTING_STEP         0:00:30 
;;RULE_STEP            00:00:00

INERTIAL_DAMPING     PARTIAL
NORMAL_FLOW_LIMITED  BOTH
FORCE_MAIN_EQUATION  H-W
VARIABLE_STEP        0.75
LENGTHENING_STEP     0
MIN_SURFAREA         1.167
MAX_TRIALS           8
HEAD_TOLERANCE       0.0015
SYS_FLOW_TOL         5
LAT_FLOW_TOL         5
MINIMUM_STEP         0.5
THREADS              1

[EVAPORATION]
;;Data Source    Parameters
;;-------------- ----------------
CONSTANT         0.0
DRY_ONLY         NO

[JUNCTIONS]
;;Name           Elevation  MaxDepth   InitDepth  SurDepth   Aponded   
;;-------------- ---------- ---------- ---------- ---------- ----------
Ya9              20.48      1.5        0          0          0         
Yb12             20.7       1.23       0          0          0         
Yb13             20.5       1.5        0          0          0         
J1               20.85      1.5        0          0          0         

[OUTFALLS]
;;Name           Elevation  Type       Stage Data       Gated    Route To        
;;-------------- ---------- ---------- ---------------- -------- ----------------
Out1             20.2       FREE                        NO                       
Reuse1           20.5       FREE                        NO                       

[STORAGE]
;;Name           Elev.    MaxDepth   InitDepth  Shape      Curve Name/Params            N/A      Fevap    Psi      Ksat     IMD     
;;-------------- -------- ---------- ----------- ---------- ---------------------------- -------- --------          -------- --------
T1               17.42    4.9        1          FUNCTIONAL 0         0         17.5     0        0       

[CONDUITS]
;;Name           From Node        To Node          Length     Roughness  InOffset   OutOffset  InitFlow   MaxFlow   
;;-------------- ---------------- ---------------- ---------- ---------- ---------- ---------- ---------- ----------
J21              Yb12             Yb13             7.7523522  0.014      0.3        0.2        0          0         
J22              Yb13             Ya9              2.29511038 0.014      0          0          0          0         
J23              Ya9              Out1             5.99739132 0.014      0          0          0          0         

[PUMPS]
;;Name           From Node        To Node          Pump Curve       Status   Sartup Shutoff 
;;-------------- ---------------- ---------------- ---------------- ------ -------- --------
P1               T1               J1               Drainout         OFF      0        0       
P2               T1               Reuse1           Reuse1           OFF      0        0       

[ORIFICES]
;;Name           From Node        To Node          Type         Offset     Qcoeff     Gated    CloseTime 
;;-------------- ---------------- ---------------- ------------ ---------- ---------- -------- ----------
FM3              J1               Ya9              SIDE         0          0.65       NO       0         
FM1              Yb12             T1               SIDE         0.2        0.65       NO       0         
FM2              T1               Yb13             SIDE         3.1        0.65       YES      0         

[XSECTIONS]
;;Link           Shape        Geom1            Geom2      Geom3      Geom4      Barrels    Culvert   
;;-------------- ------------ ---------------- ---------- ---------- ---------- ---------- ----------
J21              CIRCULAR     0.3              0          0          0          1                    
J22              CIRCULAR     0.3              0          0          0          1                    
J23              CIRCULAR     0.3              0          0          0          1                    
FM3              CIRCULAR     0.3              0          0          0
FM1              CIRCULAR     0.3              0          0          0
FM2              CIRCULAR     0.3              0          0          0

[CONTROLS]




[INFLOWS]
;;Node           Constituent      Time Series      Type     Mfactor  Sfactor  Baseline Pattern
;;-------------- ---------------- ---------------- -------- -------- -------- -------- --------
Yb12             FLOW             Qin              FLOW     1.0      1.0              

[CURVES]
;;Name           Type       X-Value    Y-Value   
;;-------------- ---------- ---------- ----------
Drainout         Pump2      0          1.5    
Drainout                    1          1.5    
Drainout                    2          1.5    
Drainout                    3          1.5    
Drainout                    4          1.5    
;
Reuse1           Pump2      0          0.5     
Reuse1                      1          0.5     
Reuse1                      2          0.5     
Reuse1                      3          0.5     
Reuse1                      4          0.5     

[TIMESERIES]
;;Name	Date	Time	Value
;;-------------- ------------------ ------------------
Qin	06/27/2022	00:00:00	0
Qin	06/27/2022	00:05:00	0
Qin	06/27/2022	00:10:00	0
Qin	06/27/2022	00:15:00	0
Qin	06/27/2022	00:20:00	0
Qin	06/27/2022	00:25:00	0
Qin	06/27/2022	00:30:00	0
Qin	06/27/2022	00:35:00	0
Qin	06/27/2022	00:40:00	0
Qin	06/27/2022	00:45:00	0
Qin	06/27/2022	00:50:00	0
Qin	06/27/2022	00:55:00	0
Qin	06/27/2022	01:00:00	0
Qin	06/27/2022	01:05:00	0
Qin	06/27/2022	01:10:00	0
Qin	06/27/2022	01:15:00	0
Qin	06/27/2022	01:20:00	0
Qin	06/27/2022	01:25:00	0
Qin	06/27/2022	01:30:00	0
Qin	06/27/2022	01:35:00	0
Qin	06/27/2022	01:40:00	0
Qin	06/27/2022	01:45:00	0
Qin	06/27/2022	01:50:00	0
Qin	06/27/2022	01:55:00	0
Qin	06/27/2022	02:00:00	0
Qin	06/27/2022	02:05:00	0
Qin	06/27/2022	02:10:00	0
Qin	06/27/2022	02:15:00	0
Qin	06/27/2022	02:20:00	0
Qin	06/27/2022	02:25:00	0
Qin	06/27/2022	02:30:00	0
Qin	06/27/2022	02:35:00	0
Qin	06/27/2022	02:40:00	0
Qin	06/27/2022	02:45:00	0
Qin	06/27/2022	02:50:00	0
Qin	06/27/2022	02:55:00	0
Qin	06/27/2022	03:00:00	0
Qin	06/27/2022	03:05:00	0
Qin	06/27/2022	03:10:00	0
Qin	06/27/2022	03:15:00	0
Qin	06/27/2022	03:20:00	0
Qin	06/27/2022	03:25:00	0
Qin	06/27/2022	03:30:00	0
Qin	06/27/2022	03:35:00	0
Qin	06/27/2022	03:40:00	0
Qin	06/27/2022	03:45:00	0
Qin	06/27/2022	03:50:00	0
Qin	06/27/2022	03:55:00	0
Qin	06/27/2022	04:00:00	0
Qin	06/27/2022	04:05:00	0
Qin	06/27/2022	04:10:00	0
Qin	06/27/2022	04:15:00	0
Qin	06/27/2022	04:20:00	0
Qin	06/27/2022	04:25:00	0
Qin	06/27/2022	04:30:00	0
Qin	06/27/2022	04:35:00	0
Qin	06/27/2022	04:40:00	0
Qin	06/27/2022	04:45:00	0
Qin	06/27/2022	04:50:00	0
Qin	06/27/2022	04:55:00	0
Qin	06/27/2022	05:00:00	0
Qin	06/27/2022	05:05:00	0
Qin	06/27/2022	05:10:00	0
Qin	06/27/2022	05:15:00	0
Qin	06/27/2022	05:20:00	0
Qin	06/27/2022	05:25:00	0
Qin	06/27/2022	05:30:00	0
Qin	06/27/2022	05:35:00	0
Qin	06/27/2022	05:40:00	0
Qin	06/27/2022	05:45:00	0
Qin	06/27/2022	05:50:00	0
Qin	06/27/2022	05:55:00	0
Qin	06/27/2022	06:00:00	0
Qin	06/27/2022	06:05:00	0
Qin	06/27/2022	06:10:00	0
Qin	06/27/2022	06:15:00	0
Qin	06/27/2022	06:20:00	0
Qin	06/27/2022	06:25:00	0
Qin	06/27/2022	06:30:00	0
Qin	06/27/2022	06:35:00	0
Qin	06/27/2022	06:40:00	0
Qin	06/27/2022	06:45:00	0
Qin	06/27/2022	06:50:00	0
Qin	06/27/2022	06:55:00	0
Qin	06/27/2022	07:00:00	0
Qin	06/27/2022	07:05:00	0
Qin	06/27/2022	07:10:00	0
Qin	06/27/2022	07:15:00	0
Qin	06/27/2022	07:20:00	0
Qin	06/27/2022	07:25:00	0
Qin	06/27/2022	07:30:00	0
Qin	06/27/2022	07:35:00	0
Qin	06/27/2022	07:40:00	0
Qin	06/27/2022	07:45:00	0
Qin	06/27/2022	07:50:00	0
Qin	06/27/2022	07:55:00	0
Qin	06/27/2022	08:00:00	0
Qin	06/27/2022	08:05:00	0
Qin	06/27/2022	08:10:00	0
Qin	06/27/2022	08:15:00	0
Qin	06/27/2022	08:20:00	0
Qin	06/27/2022	08:25:00	0
Qin	06/27/2022	08:30:00	0
Qin	06/27/2022	08:35:00	0
Qin	06/27/2022	08:40:00	0
Qin	06/27/2022	08:45:00	0
Qin	06/27/2022	08:50:00	0
Qin	06/27/2022	08:55:00	0
Qin	06/27/2022	09:00:00	0
Qin	06/27/2022	09:05:00	0
Qin	06/27/2022	09:10:00	0
Qin	06/27/2022	09:15:00	0
Qin	06/27/2022	09:20:00	0
Qin	06/27/2022	09:25:00	0
Qin	06/27/2022	09:30:00	0
Qin	06/27/2022	09:35:00	0
Qin	06/27/2022	09:40:00	0
Qin	06/27/2022	09:45:00	0
Qin	06/27/2022	09:50:00	0
Qin	06/27/2022	09:55:00	0
Qin	06/27/2022	10:00:00	0
Qin	06/27/2022	10:05:00	0
Qin	06/27/2022	10:10:00	0
Qin	06/27/2022	10:15:00	0
Qin	06/27/2022	10:20:00	0
Qin	06/27/2022	10:25:00	0
Qin	06/27/2022	10:30:00	0
Qin	06/27/2022	10:35:00	0
Qin	06/27/2022	10:40:00	0
Qin	06/27/2022	10:45:00	0
Qin	06/27/2022	10:50:00	0
Qin	06/27/2022	10:55:00	0
Qin	06/27/2022	11:00:00	0
Qin	06/27/2022	11:05:00	0
Qin	06/27/2022	11:10:00	0
Qin	06/27/2022	11:15:00	0
Qin	06/27/2022	11:20:00	0
Qin	06/27/2022	11:25:00	0
Qin	06/27/2022	11:30:00	0
Qin	06/27/2022	11:35:00	0
Qin	06/27/2022	11:40:00	0
Qin	06/27/2022	11:45:00	0
Qin	06/27/2022	11:50:00	0
Qin	06/27/2022	11:55:00	0
Qin	06/27/2022	12:00:00	0
Qin	06/27/2022	12:05:00	0
Qin	06/27/2022	12:10:00	0
Qin	06/27/2022	12:15:00	0
Qin	06/27/2022	12:20:00	0
Qin	06/27/2022	12:25:00	0
Qin	06/27/2022	12:30:00	0
Qin	06/27/2022	12:35:00	0
Qin	06/27/2022	12:40:00	0
Qin	06/27/2022	12:45:00	0
Qin	06/27/2022	12:50:00	0
Qin	06/27/2022	12:55:00	0
Qin	06/27/2022	13:00:00	0
Qin	06/27/2022	13:05:00	0
Qin	06/27/2022	13:10:00	0
Qin	06/27/2022	13:15:00	0
Qin	06/27/2022	13:20:00	0
Qin	06/27/2022	13:25:00	0
Qin	06/27/2022	13:30:00	0
Qin	06/27/2022	13:35:00	0
Qin	06/27/2022	13:40:00	0
Qin	06/27/2022	13:45:00	0
Qin	06/27/2022	13:50:00	0
Qin	06/27/2022	13:55:00	0
Qin	06/27/2022	14:00:00	0
Qin	06/27/2022	14:05:00	0
Qin	06/27/2022	14:10:00	0
Qin	06/27/2022	14:15:00	0
Qin	06/27/2022	14:20:00	0
Qin	06/27/2022	14:25:00	0
Qin	06/27/2022	14:30:00	0
Qin	06/27/2022	14:35:00	0
Qin	06/27/2022	14:40:00	0
Qin	06/27/2022	14:45:00	0
Qin	06/27/2022	14:50:00	0
Qin	06/27/2022	14:55:00	0
Qin	06/27/2022	15:00:00	0
Qin	06/27/2022	15:05:00	0
Qin	06/27/2022	15:10:00	0
Qin	06/27/2022	15:15:00	0
Qin	06/27/2022	15:20:00	0
Qin	06/27/2022	15:25:00	0
Qin	06/27/2022	15:30:00	0
Qin	06/27/2022	15:35:00	0
Qin	06/27/2022	15:40:00	0
Qin	06/27/2022	15:45:00	0
Qin	06/27/2022	15:50:00	0
Qin	06/27/2022	15:55:00	0
Qin	06/27/2022	16:00:00	0
Qin	06/27/2022	16:05:00	0
Qin	06/27/2022	16:10:00	0
Qin	06/27/2022	16:15:00	0
Qin	06/27/2022	16:20:00	0
Qin	06/27/2022	16:25:00	0
Qin	06/27/2022	16:30:00	0
Qin	06/27/2022	16:35:00	0
Qin	06/27/2022	16:40:00	0
Qin	06/27/2022	16:45:00	0
Qin	06/27/2022	16:50:00	0
Qin	06/27/2022	16:55:00	0
Qin	06/27/2022	17:00:00	0
Qin	06/27/2022	17:05:00	0
Qin	06/27/2022	17:10:00	0
Qin	06/27/2022	17:15:00	0
Qin	06/27/2022	17:20:00	0
Qin	06/27/2022	17:25:00	0
Qin	06/27/2022	17:30:00	0
Qin	06/27/2022	17:35:00	0
Qin	06/27/2022	17:40:00	0
Qin	06/27/2022	17:45:00	0
Qin	06/27/2022	17:50:00	0
Qin	06/27/2022	17:55:00	0
Qin	06/27/2022	18:00:00	0
Qin	06/27/2022	18:05:00	0
Qin	06/27/2022	18:10:00	0
Qin	06/27/2022	18:15:00	0
Qin	06/27/2022	18:20:00	0
Qin	06/27/2022	18:25:00	0
Qin	06/27/2022	18:30:00	0
Qin	06/27/2022	18:35:00	0
Qin	06/27/2022	18:40:00	0
Qin	06/27/2022	18:45:00	0
Qin	06/27/2022	18:50:00	0
Qin	06/27/2022	18:55:00	0
Qin	06/27/2022	19:00:00	0
Qin	06/27/2022	19:05:00	0
Qin	06/27/2022	19:10:00	0
Qin	06/27/2022	19:15:00	0
Qin	06/27/2022	19:20:00	0
Qin	06/27/2022	19:25:00	0
Qin	06/27/2022	19:30:00	0
Qin	06/27/2022	19:35:00	0
Qin	06/27/2022	19:40:00	0
Qin	06/27/2022	19:45:00	0
Qin	06/27/2022	19:50:00	0
Qin	06/27/2022	19:55:00	0
Qin	06/27/2022	20:00:00	0
Qin	06/27/2022	20:05:00	0
Qin	06/27/2022	20:10:00	0
Qin	06/27/2022	20:15:00	0
Qin	06/27/2022	20:20:00	0
Qin	06/27/2022	20:25:00	0
Qin	06/27/2022	20:30:00	0
Qin	06/27/2022	20:35:00	0
Qin	06/27/2022	20:40:00	0
Qin	06/27/2022	20:45:00	0
Qin	06/27/2022	20:50:00	0
Qin	06/27/2022	20:55:00	0
Qin	06/27/2022	21:00:00	0
Qin	06/27/2022	21:05:00	0
Qin	06/27/2022	21:10:00	0
Qin	06/27/2022	21:15:00	0
Qin	06/27/2022	21:20:00	0
Qin	06/27/2022	21:25:00	0.382463
Qin	06/27/2022	21:30:00	0
Qin	06/27/2022	21:35:00	0
Qin	06/27/2022	21:40:00	0
Qin	06/27/2022	21:45:00	0
Qin	06/27/2022	21:50:00	0
Qin	06/27/2022	21:55:00	0
Qin	06/27/2022	22:00:00	0
Qin	06/27/2022	22:05:00	0.424594
Qin	06/27/2022	22:10:00	2.25491
Qin	06/27/2022	22:15:00	3.80091
Qin	06/27/2022	22:20:00	4.63781
Qin	06/27/2022	22:25:00	2.70425
Qin	06/27/2022	22:30:00	5.5436
Qin	06/27/2022	22:35:00	9.75846
Qin	06/27/2022	22:40:00	3.68226
Qin	06/27/2022	22:45:00	3.04256
Qin	06/27/2022	22:50:00	2.08528
Qin	06/27/2022	22:55:00	2.06529
Qin	06/27/2022	23:00:00	3.03152
Qin	06/27/2022	23:05:00	0.942531
Qin	06/27/2022	23:10:00	2.9964
Qin	06/27/2022	23:15:00	0.839557
Qin	06/27/2022	23:20:00	1.88057
Qin	06/27/2022	23:25:00	0.748761
Qin	06/27/2022	23:30:00	1.75757
Qin	06/27/2022	23:35:00	1.69066
Qin	06/27/2022	23:40:00	1.68647
Qin	06/27/2022	23:45:00	0.616759
Qin	06/27/2022	23:50:00	1.66249
Qin	06/27/2022	23:55:00	1.60976
Qin	06/28/2022	00:00:00	1.62006
Qin	06/28/2022	00:05:00	1.63037
Qin	06/28/2022	00:10:00	3.86618
Qin	06/28/2022	00:15:00	2.81871
Qin	06/28/2022	00:20:00	1.83894
Qin	06/28/2022	00:25:00	0.764454
Qin	06/28/2022	00:30:00	2.99998
Qin	06/28/2022	00:35:00	1.81026
Qin	06/28/2022	00:40:00	1.87271
Qin	06/28/2022	00:45:00	3.03291
Qin	06/28/2022	00:50:00	5.46617
Qin	06/28/2022	00:55:00	4.4302
Qin	06/28/2022	01:00:00	9.80001
Qin	06/28/2022	01:05:00	6.29369
Qin	06/28/2022	01:10:00	2.89529
Qin	06/28/2022	01:15:00	13.8084
Qin	06/28/2022	01:20:00	11.3658
Qin	06/28/2022	01:25:00	12.2227
Qin	06/28/2022	01:30:00	15.9857
Qin	06/28/2022	01:35:00	7.51908
Qin	06/28/2022	01:40:00	3.66258
Qin	06/28/2022	01:45:00	4.90686
Qin	06/28/2022	01:50:00	4.49903
Qin	06/28/2022	01:55:00	4.23758
Qin	06/28/2022	02:00:00	2.57562
Qin	06/28/2022	02:05:00	2.35232
Qin	06/28/2022	02:10:00	3.49475
Qin	06/28/2022	02:15:00	1.82621
Qin	06/28/2022	02:20:00	7.61914
Qin	06/28/2022	02:25:00	3.02364
Qin	06/28/2022	02:30:00	3.23782
Qin	06/28/2022	02:35:00	3.13955
Qin	06/28/2022	02:40:00	3.05518
Qin	06/28/2022	02:45:00	4.48393
Qin	06/28/2022	02:50:00	10.7927
Qin	06/28/2022	02:55:00	11.1035
Qin	06/28/2022	03:00:00	18.8542
Qin	06/28/2022	03:05:00	10.9015
Qin	06/28/2022	03:10:00	5.13343
Qin	06/28/2022	03:15:00	6.88918
Qin	06/28/2022	03:20:00	17.136
Qin	06/28/2022	03:25:00	23.2646
Qin	06/28/2022	03:30:00	12.8466
Qin	06/28/2022	03:35:00	11.9697
Qin	06/28/2022	03:40:00	10.2865
Qin	06/28/2022	03:45:00	13.9507
Qin	06/28/2022	03:50:00	19.8388
Qin	06/28/2022	03:55:00	16.2579
Qin	06/28/2022	04:00:00	11.0765
Qin	06/28/2022	04:05:00	7.56498
Qin	06/28/2022	04:10:00	9.09593
Qin	06/28/2022	04:15:00	4.99596
Qin	06/28/2022	04:20:00	4.64456
Qin	06/28/2022	04:25:00	4.06941
Qin	06/28/2022	04:30:00	5.35
Qin	06/28/2022	04:35:00	3.14988
Qin	06/28/2022	04:40:00	4.68178
Qin	06/28/2022	04:45:00	2.56132
Qin	06/28/2022	04:50:00	2.37925
Qin	06/28/2022	04:55:00	2.08463
Qin	06/28/2022	05:00:00	1.82676
Qin	06/28/2022	05:05:00	1.60079
Qin	06/28/2022	05:10:00	1.40277
Qin	06/28/2022	05:15:00	1.22925
Qin	06/28/2022	05:20:00	1.07719
Qin	06/28/2022	05:25:00	0.943942
Qin	06/28/2022	05:30:00	0.827177
Qin	06/28/2022	05:35:00	0.724855
Qin	06/28/2022	05:40:00	0.63519
Qin	06/28/2022	05:45:00	0.556617
Qin	06/28/2022	05:50:00	0.487764
Qin	06/28/2022	05:55:00	0.427427
Qin	06/28/2022	06:00:00	0.374555
Qin	06/28/2022	06:05:00	0.328222
Qin	06/28/2022	06:10:00	0.287621
Qin	06/28/2022	06:15:00	0.252042
Qin	06/28/2022	06:20:00	0.220865
Qin	06/28/2022	06:25:00	0.193544
Qin	06/28/2022	06:30:00	0.169602
Qin	06/28/2022	06:35:00	0.148623
Qin	06/28/2022	06:40:00	0.130238
Qin	06/28/2022	06:45:00	0.114128
Qin	06/28/2022	06:50:00	0.10001
Qin	06/28/2022	06:55:00	0
Qin	06/28/2022	07:00:00	0
Qin	06/28/2022	07:05:00	0
Qin	06/28/2022	07:10:00	0
Qin	06/28/2022	07:15:00	0
Qin	06/28/2022	07:20:00	0
Qin	06/28/2022	07:25:00	0
Qin	06/28/2022	07:30:00	0
Qin	06/28/2022	07:35:00	0
Qin	06/28/2022	07:40:00	0
Qin	06/28/2022	07:45:00	0
Qin	06/28/2022	07:50:00	0
Qin	06/28/2022	07:55:00	0
Qin	06/28/2022	08:00:00	0
Qin	06/28/2022	08:05:00	0
Qin	06/28/2022	08:10:00	0
Qin	06/28/2022	08:15:00	0
Qin	06/28/2022	08:20:00	0
Qin	06/28/2022	08:25:00	0
Qin	06/28/2022	08:30:00	0
Qin	06/28/2022	08:35:00	0
Qin	06/28/2022	08:40:00	0
Qin	06/28/2022	08:45:00	0
Qin	06/28/2022	08:50:00	0
Qin	06/28/2022	08:55:00	0
Qin	06/28/2022	09:00:00	0
Qin	06/28/2022	09:05:00	0
Qin	06/28/2022	09:10:00	0
Qin	06/28/2022	09:15:00	0
Qin	06/28/2022	09:20:00	0
Qin	06/28/2022	09:25:00	0
Qin	06/28/2022	09:30:00	0
Qin	06/28/2022	09:35:00	0
Qin	06/28/2022	09:40:00	0
Qin	06/28/2022	09:45:00	0
Qin	06/28/2022	09:50:00	0
Qin	06/28/2022	09:55:00	0
Qin	06/28/2022	10:00:00	0
Qin	06/28/2022	10:05:00	0
Qin	06/28/2022	10:10:00	0
Qin	06/28/2022	10:15:00	0
Qin	06/28/2022	10:20:00	0
Qin	06/28/2022	10:25:00	0
Qin	06/28/2022	10:30:00	0
Qin	06/28/2022	10:35:00	0
Qin	06/28/2022	10:40:00	0
Qin	06/28/2022	10:45:00	0
Qin	06/28/2022	10:50:00	0
Qin	06/28/2022	10:55:00	0
Qin	06/28/2022	11:00:00	0
Qin	06/28/2022	11:05:00	0
Qin	06/28/2022	11:10:00	0
Qin	06/28/2022	11:15:00	0
Qin	06/28/2022	11:20:00	0
Qin	06/28/2022	11:25:00	0
Qin	06/28/2022	11:30:00	0
Qin	06/28/2022	11:35:00	0
Qin	06/28/2022	11:40:00	0
Qin	06/28/2022	11:45:00	0
Qin	06/28/2022	11:50:00	0
Qin	06/28/2022	11:55:00	0
Qin	06/28/2022	12:00:00	0
Qin	06/28/2022	12:05:00	0
Qin	06/28/2022	12:10:00	0
Qin	06/28/2022	12:15:00	0
Qin	06/28/2022	12:20:00	0
Qin	06/28/2022	12:25:00	0
Qin	06/28/2022	12:30:00	0
Qin	06/28/2022	12:35:00	0
Qin	06/28/2022	12:40:00	0
Qin	06/28/2022	12:45:00	0
Qin	06/28/2022	12:50:00	0
Qin	06/28/2022	12:55:00	0
Qin	06/28/2022	13:00:00	0
Qin	06/28/2022	13:05:00	0
Qin	06/28/2022	13:10:00	0
Qin	06/28/2022	13:15:00	0
Qin	06/28/2022	13:20:00	0
Qin	06/28/2022	13:25:00	0
Qin	06/28/2022	13:30:00	0
Qin	06/28/2022	13:35:00	0
Qin	06/28/2022	13:40:00	0
Qin	06/28/2022	13:45:00	0
Qin	06/28/2022	13:50:00	0
Qin	06/28/2022	13:55:00	0
Qin	06/28/2022	14:00:00	0
Qin	06/28/2022	14:05:00	0
Qin	06/28/2022	14:10:00	0
Qin	06/28/2022	14:15:00	0
Qin	06/28/2022	14:20:00	0
Qin	06/28/2022	14:25:00	0
Qin	06/28/2022	14:30:00	0
Qin	06/28/2022	14:35:00	0
Qin	06/28/2022	14:40:00	0
Qin	06/28/2022	14:45:00	0
Qin	06/28/2022	14:50:00	0
Qin	06/28/2022	14:55:00	0
Qin	06/28/2022	15:00:00	0
Qin	06/28/2022	15:05:00	0
Qin	06/28/2022	15:10:00	0
Qin	06/28/2022	15:15:00	0
Qin	06/28/2022	15:20:00	0
Qin	06/28/2022	15:25:00	0
Qin	06/28/2022	15:30:00	0
Qin	06/28/2022	15:35:00	0
Qin	06/28/2022	15:40:00	0
Qin	06/28/2022	15:45:00	0
Qin	06/28/2022	15:50:00	0
Qin	06/28/2022	15:55:00	0
Qin	06/28/2022	16:00:00	0
Qin	06/28/2022	16:05:00	0
Qin	06/28/2022	16:10:00	0
Qin	06/28/2022	16:15:00	0
Qin	06/28/2022	16:20:00	0
Qin	06/28/2022	16:25:00	0
Qin	06/28/2022	16:30:00	0
Qin	06/28/2022	16:35:00	0
Qin	06/28/2022	16:40:00	0
Qin	06/28/2022	16:45:00	0
Qin	06/28/2022	16:50:00	0
Qin	06/28/2022	16:55:00	0
Qin	06/28/2022	17:00:00	0
Qin	06/28/2022	17:05:00	0
Qin	06/28/2022	17:10:00	0
Qin	06/28/2022	17:15:00	0
Qin	06/28/2022	17:20:00	0
Qin	06/28/2022	17:25:00	0
Qin	06/28/2022	17:30:00	0
Qin	06/28/2022	17:35:00	0
Qin	06/28/2022	17:40:00	0
Qin	06/28/2022	17:45:00	0
Qin	06/28/2022	17:50:00	0
Qin	06/28/2022	17:55:00	0
Qin	06/28/2022	18:00:00	0
Qin	06/28/2022	18:05:00	0
Qin	06/28/2022	18:10:00	0
Qin	06/28/2022	18:15:00	0
Qin	06/28/2022	18:20:00	0
Qin	06/28/2022	18:25:00	0
Qin	06/28/2022	18:30:00	0
Qin	06/28/2022	18:35:00	0
Qin	06/28/2022	18:40:00	0
Qin	06/28/2022	18:45:00	0
Qin	06/28/2022	18:50:00	0
Qin	06/28/2022	18:55:00	0
Qin	06/28/2022	19:00:00	0
Qin	06/28/2022	19:05:00	0
Qin	06/28/2022	19:10:00	0
Qin	06/28/2022	19:15:00	0
Qin	06/28/2022	19:20:00	0
Qin	06/28/2022	19:25:00	0
Qin	06/28/2022	19:30:00	0
Qin	06/28/2022	19:35:00	0
Qin	06/28/2022	19:40:00	0
Qin	06/28/2022	19:45:00	0
Qin	06/28/2022	19:50:00	0
Qin	06/28/2022	19:55:00	0
Qin	06/28/2022	20:00:00	0
Qin	06/28/2022	20:05:00	0
Qin	06/28/2022	20:10:00	0
Qin	06/28/2022	20:15:00	0
Qin	06/28/2022	20:20:00	0
Qin	06/28/2022	20:25:00	0
Qin	06/28/2022	20:30:00	0
Qin	06/28/2022	20:35:00	0
Qin	06/28/2022	20:40:00	0
Qin	06/28/2022	20:45:00	0
Qin	06/28/2022	20:50:00	0
Qin	06/28/2022	20:55:00	0
Qin	06/28/2022	21:00:00	0
Qin	06/28/2022	21:05:00	0
Qin	06/28/2022	21:10:00	0
Qin	06/28/2022	21:15:00	0
Qin	06/28/2022	21:20:00	0
Qin	06/28/2022	21:25:00	0
Qin	06/28/2022	21:30:00	0
Qin	06/28/2022	21:35:00	0
Qin	06/28/2022	21:40:00	0
Qin	06/28/2022	21:45:00	0
Qin	06/28/2022	21:50:00	0
Qin	06/28/2022	21:55:00	0
Qin	06/28/2022	22:00:00	0
Qin	06/28/2022	22:05:00	0
Qin	06/28/2022	22:10:00	0
Qin	06/28/2022	22:15:00	0
Qin	06/28/2022	22:20:00	0
Qin	06/28/2022	22:25:00	0
Qin	06/28/2022	22:30:00	0
Qin	06/28/2022	22:35:00	0
Qin	06/28/2022	22:40:00	0
Qin	06/28/2022	22:45:00	0
Qin	06/28/2022	22:50:00	0
Qin	06/28/2022	22:55:00	0
Qin	06/28/2022	23:00:00	0
Qin	06/28/2022	23:05:00	0
Qin	06/28/2022	23:10:00	0
Qin	06/28/2022	23:15:00	0
Qin	06/28/2022	23:20:00	0
Qin	06/28/2022	23:25:00	0
Qin	06/28/2022	23:30:00	0
Qin	06/28/2022	23:35:00	0
Qin	06/28/2022	23:40:00	0
Qin	06/28/2022	23:45:00	0
Qin	06/28/2022	23:50:00	0
Qin	06/28/2022	23:55:00	0
Qin	06/29/2022	00:00:00	0
Qin	06/29/2022	00:05:00	0
Qin	06/29/2022	00:10:00	0
Qin	06/29/2022	00:15:00	0
Qin	06/29/2022	00:20:00	0
Qin	06/29/2022	00:25:00	0
Qin	06/29/2022	00:30:00	0
Qin	06/29/2022	00:35:00	0
Qin	06/29/2022	00:40:00	0
Qin	06/29/2022	00:45:00	0
Qin	06/29/2022	00:50:00	0
Qin	06/29/2022	00:55:00	0
Qin	06/29/2022	01:00:00	0
Qin	06/29/2022	01:05:00	0
Qin	06/29/2022	01:10:00	0
Qin	06/29/2022	01:15:00	0
Qin	06/29/2022	01:20:00	0
Qin	06/29/2022	01:25:00	0
Qin	06/29/2022	01:30:00	0
Qin	06/29/2022	01:35:00	0
Qin	06/29/2022	01:40:00	0
Qin	06/29/2022	01:45:00	0
Qin	06/29/2022	01:50:00	0
Qin	06/29/2022	01:55:00	0
Qin	06/29/2022	02:00:00	0
Qin	06/29/2022	02:05:00	0
Qin	06/29/2022	02:10:00	0
Qin	06/29/2022	02:15:00	0
Qin	06/29/2022	02:20:00	0
Qin	06/29/2022	02:25:00	0
Qin	06/29/2022	02:30:00	0
Qin	06/29/2022	02:35:00	0
Qin	06/29/2022	02:40:00	0
Qin	06/29/2022	02:45:00	0
Qin	06/29/2022	02:50:00	0
Qin	06/29/2022	02:55:00	0
Qin	06/29/2022	03:00:00	0
Qin	06/29/2022	03:05:00	0
Qin	06/29/2022	03:10:00	0
Qin	06/29/2022	03:15:00	0
Qin	06/29/2022	03:20:00	0
Qin	06/29/2022	03:25:00	0
Qin	06/29/2022	03:30:00	0
Qin	06/29/2022	03:35:00	0
Qin	06/29/2022	03:40:00	0
Qin	06/29/2022	03:45:00	0
Qin	06/29/2022	03:50:00	0
Qin	06/29/2022	03:55:00	0
Qin	06/29/2022	04:00:00	0
Qin	06/29/2022	04:05:00	0
Qin	06/29/2022	04:10:00	0
Qin	06/29/2022	04:15:00	0
Qin	06/29/2022	04:20:00	0
Qin	06/29/2022	04:25:00	0
Qin	06/29/2022	04:30:00	0
Qin	06/29/2022	04:35:00	0
Qin	06/29/2022	04:40:00	0
Qin	06/29/2022	04:45:00	0
Qin	06/29/2022	04:50:00	0
Qin	06/29/2022	04:55:00	0
Qin	06/29/2022	05:00:00	0
Qin	06/29/2022	05:05:00	0
Qin	06/29/2022	05:10:00	0
Qin	06/29/2022	05:15:00	0
Qin	06/29/2022	05:20:00	0
Qin	06/29/2022	05:25:00	0
Qin	06/29/2022	05:30:00	0
Qin	06/29/2022	05:35:00	0
Qin	06/29/2022	05:40:00	0
Qin	06/29/2022	05:45:00	0
Qin	06/29/2022	05:50:00	0
Qin	06/29/2022	05:55:00	0
Qin	06/29/2022	06:00:00	0
Qin	06/29/2022	06:05:00	0
Qin	06/29/2022	06:10:00	0
Qin	06/29/2022	06:15:00	0
Qin	06/29/2022	06:20:00	0
Qin	06/29/2022	06:25:00	0
Qin	06/29/2022	06:30:00	0
Qin	06/29/2022	06:35:00	0
Qin	06/29/2022	06:40:00	0
Qin	06/29/2022	06:45:00	0
Qin	06/29/2022	06:50:00	0
Qin	06/29/2022	06:55:00	0
Qin	06/29/2022	07:00:00	0
Qin	06/29/2022	07:05:00	0
Qin	06/29/2022	07:10:00	0
Qin	06/29/2022	07:15:00	0
Qin	06/29/2022	07:20:00	0
Qin	06/29/2022	07:25:00	0
Qin	06/29/2022	07:30:00	0
Qin	06/29/2022	07:35:00	0
Qin	06/29/2022	07:40:00	0
Qin	06/29/2022	07:45:00	0
Qin	06/29/2022	07:50:00	0
Qin	06/29/2022	07:55:00	0
Qin	06/29/2022	08:00:00	0
Qin	06/29/2022	08:05:00	0
Qin	06/29/2022	08:10:00	0
Qin	06/29/2022	08:15:00	0
Qin	06/29/2022	08:20:00	0
Qin	06/29/2022	08:25:00	0
Qin	06/29/2022	08:30:00	0
Qin	06/29/2022	08:35:00	0
Qin	06/29/2022	08:40:00	0.764861
Qin	06/29/2022	08:45:00	0
Qin	06/29/2022	08:50:00	0
Qin	06/29/2022	08:55:00	0
Qin	06/29/2022	09:00:00	0
Qin	06/29/2022	09:05:00	0
Qin	06/29/2022	09:10:00	0
Qin	06/29/2022	09:15:00	0
Qin	06/29/2022	09:20:00	0
Qin	06/29/2022	09:25:00	0
Qin	06/29/2022	09:30:00	0
Qin	06/29/2022	09:35:00	0
Qin	06/29/2022	09:40:00	0
Qin	06/29/2022	09:45:00	0
Qin	06/29/2022	09:50:00	0
Qin	06/29/2022	09:55:00	0
Qin	06/29/2022	10:00:00	0
Qin	06/29/2022	10:05:00	0
Qin	06/29/2022	10:10:00	0
Qin	06/29/2022	10:15:00	0
Qin	06/29/2022	10:20:00	0
Qin	06/29/2022	10:25:00	0
Qin	06/29/2022	10:30:00	0
Qin	06/29/2022	10:35:00	0
Qin	06/29/2022	10:40:00	0
Qin	06/29/2022	10:45:00	0.170674
Qin	06/29/2022	10:50:00	0
Qin	06/29/2022	10:55:00	0.29077
Qin	06/29/2022	11:00:00	0
Qin	06/29/2022	11:05:00	0.370867
Qin	06/29/2022	11:10:00	0
Qin	06/29/2022	11:15:00	0.200749
Qin	06/29/2022	11:20:00	0
Qin	06/29/2022	11:25:00	0
Qin	06/29/2022	11:30:00	0
Qin	06/29/2022	11:35:00	0
Qin	06/29/2022	11:40:00	0
Qin	06/29/2022	11:45:00	0
Qin	06/29/2022	11:50:00	0
Qin	06/29/2022	11:55:00	0
Qin	06/29/2022	12:00:00	0
Qin	06/29/2022	12:05:00	0
Qin	06/29/2022	12:10:00	0
Qin	06/29/2022	12:15:00	0
Qin	06/29/2022	12:20:00	0
Qin	06/29/2022	12:25:00	0
Qin	06/29/2022	12:30:00	0
Qin	06/29/2022	12:35:00	0
Qin	06/29/2022	12:40:00	0
Qin	06/29/2022	12:45:00	0
Qin	06/29/2022	12:50:00	0
Qin	06/29/2022	12:55:00	0
Qin	06/29/2022	13:00:00	0
Qin	06/29/2022	13:05:00	0
Qin	06/29/2022	13:10:00	0
Qin	06/29/2022	13:15:00	0
Qin	06/29/2022	13:20:00	0
Qin	06/29/2022	13:25:00	0
Qin	06/29/2022	13:30:00	0
Qin	06/29/2022	13:35:00	0
Qin	06/29/2022	13:40:00	0
Qin	06/29/2022	13:45:00	0
Qin	06/29/2022	13:50:00	0
Qin	06/29/2022	13:55:00	1.55897
Qin	06/29/2022	14:00:00	0
Qin	06/29/2022	14:05:00	0
Qin	06/29/2022	14:10:00	0
Qin	06/29/2022	14:15:00	0
Qin	06/29/2022	14:20:00	0
Qin	06/29/2022	14:25:00	0
Qin	06/29/2022	14:30:00	0
Qin	06/29/2022	14:35:00	0
Qin	06/29/2022	14:40:00	0
Qin	06/29/2022	14:45:00	0
Qin	06/29/2022	14:50:00	0
Qin	06/29/2022	14:55:00	0
Qin	06/29/2022	15:00:00	0
Qin	06/29/2022	15:05:00	0
Qin	06/29/2022	15:10:00	0
Qin	06/29/2022	15:15:00	0
Qin	06/29/2022	15:20:00	0
Qin	06/29/2022	15:25:00	0
Qin	06/29/2022	15:30:00	0
Qin	06/29/2022	15:35:00	0
Qin	06/29/2022	15:40:00	0
Qin	06/29/2022	15:45:00	0
Qin	06/29/2022	15:50:00	0
Qin	06/29/2022	15:55:00	0
Qin	06/29/2022	16:00:00	0
Qin	06/29/2022	16:05:00	0
Qin	06/29/2022	16:10:00	0
Qin	06/29/2022	16:15:00	0
Qin	06/29/2022	16:20:00	0
Qin	06/29/2022	16:25:00	0
Qin	06/29/2022	16:30:00	0.670399
Qin	06/29/2022	16:35:00	0
Qin	06/29/2022	16:40:00	0
Qin	06/29/2022	16:45:00	0
Qin	06/29/2022	16:50:00	0
Qin	06/29/2022	16:55:00	1.16337
Qin	06/29/2022	17:00:00	0
Qin	06/29/2022	17:05:00	0
Qin	06/29/2022	17:10:00	0
Qin	06/29/2022	17:15:00	0
Qin	06/29/2022	17:20:00	0
Qin	06/29/2022	17:25:00	0
Qin	06/29/2022	17:30:00	0
Qin	06/29/2022	17:35:00	0
Qin	06/29/2022	17:40:00	0
Qin	06/29/2022	17:45:00	0
Qin	06/29/2022	17:50:00	0
Qin	06/29/2022	17:55:00	0
Qin	06/29/2022	18:00:00	0
Qin	06/29/2022	18:05:00	0
Qin	06/29/2022	18:10:00	0
Qin	06/29/2022	18:15:00	0
Qin	06/29/2022	18:20:00	0
Qin	06/29/2022	18:25:00	0
Qin	06/29/2022	18:30:00	0
Qin	06/29/2022	18:35:00	0
Qin	06/29/2022	18:40:00	0
Qin	06/29/2022	18:45:00	0
Qin	06/29/2022	18:50:00	0
Qin	06/29/2022	18:55:00	0
Qin	06/29/2022	19:00:00	0
Qin	06/29/2022	19:05:00	0
Qin	06/29/2022	19:10:00	0
Qin	06/29/2022	19:15:00	0
Qin	06/29/2022	19:20:00	0
Qin	06/29/2022	19:25:00	0
Qin	06/29/2022	19:30:00	0
Qin	06/29/2022	19:35:00	0
Qin	06/29/2022	19:40:00	0
Qin	06/29/2022	19:45:00	0
Qin	06/29/2022	19:50:00	0
Qin	06/29/2022	19:55:00	0
Qin	06/29/2022	20:00:00	0
Qin	06/29/2022	20:05:00	0
Qin	06/29/2022	20:10:00	0
Qin	06/29/2022	20:15:00	0
Qin	06/29/2022	20:20:00	0
Qin	06/29/2022	20:25:00	0
Qin	06/29/2022	20:30:00	0
Qin	06/29/2022	20:35:00	0
Qin	06/29/2022	20:40:00	0
Qin	06/29/2022	20:45:00	0
Qin	06/29/2022	20:50:00	0
Qin	06/29/2022	20:55:00	0
Qin	06/29/2022	21:00:00	0
Qin	06/29/2022	21:05:00	0
Qin	06/29/2022	21:10:00	0
Qin	06/29/2022	21:15:00	0
Qin	06/29/2022	21:20:00	0
Qin	06/29/2022	21:25:00	0
Qin	06/29/2022	21:30:00	0
Qin	06/29/2022	21:35:00	0
Qin	06/29/2022	21:40:00	0
Qin	06/29/2022	21:45:00	0
Qin	06/29/2022	21:50:00	0
Qin	06/29/2022	21:55:00	0
Qin	06/29/2022	22:00:00	0
Qin	06/29/2022	22:05:00	0
Qin	06/29/2022	22:10:00	0
Qin	06/29/2022	22:15:00	0
Qin	06/29/2022	22:20:00	0
Qin	06/29/2022	22:25:00	0
Qin	06/29/2022	22:30:00	0
Qin	06/29/2022	22:35:00	0
Qin	06/29/2022	22:40:00	0
Qin	06/29/2022	22:45:00	0
Qin	06/29/2022	22:50:00	0
Qin	06/29/2022	22:55:00	0
Qin	06/29/2022	23:00:00	0
Qin	06/29/2022	23:05:00	0
Qin	06/29/2022	23:10:00	0
Qin	06/29/2022	23:15:00	0
Qin	06/29/2022	23:20:00	0
Qin	06/29/2022	23:25:00	0
Qin	06/29/2022	23:30:00	0
Qin	06/29/2022	23:35:00	0
Qin	06/29/2022	23:40:00	0
Qin	06/29/2022	23:45:00	0
Qin	06/29/2022	23:50:00	0
Qin	06/29/2022	23:55:00	0
Qin	06/30/2022	00:00:00	0
Qin	06/30/2022	00:05:00	0
Qin	06/30/2022	00:10:00	0
Qin	06/30/2022	00:15:00	0
Qin	06/30/2022	00:20:00	0
Qin	06/30/2022	00:25:00	0
Qin	06/30/2022	00:30:00	0
Qin	06/30/2022	00:35:00	0
Qin	06/30/2022	00:40:00	0
Qin	06/30/2022	00:45:00	0
Qin	06/30/2022	00:50:00	0